# generated using pymatgen
data_Mg8B4(C5O4)5
_symmetry_space_group_name_H-M   'P 1'
_cell_length_a   20.79857584
_cell_length_b   22.12332526
_cell_length_c   21.39365748
_cell_angle_alpha   93.87704894
_cell_angle_beta   95.44064120
_cell_angle_gamma   87.83640089
_symmetry_Int_Tables_number   1
_chemical_formula_structural   Mg8B4(C5O4)5
_chemical_formula_sum   'Mg96 B48 C300 O240'
_cell_volume   9772.29842126
_cell_formula_units_Z   12
loop_
 _symmetry_equiv_pos_site_id
 _symmetry_equiv_pos_as_xyz
  1  'x, y, z'
loop_
 _atom_site_type_symbol
 _atom_site_label
 _atom_site_symmetry_multiplicity
 _atom_site_fract_x
 _atom_site_fract_y
 _atom_site_fract_z
 _atom_site_occupancy
  Mg  Mg0  1  1.01477893  0.87187889  0.19504109  1
  Mg  Mg1  1  0.83690143  0.66630559  -0.00045845  1
  Mg  Mg2  1  0.38788568  0.40449124  0.66017550  1
  Mg  Mg3  1  0.43354079  0.10540062  0.60609871  1
  Mg  Mg4  1  0.65929438  0.29545608  0.70080852  1
  Mg  Mg5  1  0.55241798  0.06057567  0.49886125  1
  Mg  Mg6  1  0.17369081  0.86901650  0.10032190  1
  Mg  Mg7  1  -0.05950298  0.73333005  0.23512922  1
  Mg  Mg8  1  0.07459893  0.13123790  0.24215147  1
  Mg  Mg9  1  0.23644622  0.34466759  0.34096507  1
  Mg  Mg10  1  0.60684035  0.72109706  0.73299115  1
  Mg  Mg11  1  0.65556246  0.54138270  0.99624514  1
  Mg  Mg12  1  0.35807637  0.83965036  0.96249188  1
  Mg  Mg13  1  0.47409876  0.63721495  0.72046442  1
  Mg  Mg14  1  0.98266319  0.35400467  0.49465439  1
  Mg  Mg15  1  0.96400332  0.25392654  0.17352203  1
  Mg  Mg16  1  0.04099956  0.89279302  0.56928204  1
  Mg  Mg17  1  0.11983602  0.96524034  0.86583988  1
  Mg  Mg18  1  0.59940378  0.38924080  0.19355127  1
  Mg  Mg19  1  0.74952908  0.60628659  0.47681815  1
  Mg  Mg20  1  0.76097239  0.65349435  0.16674641  1
  Mg  Mg21  1  0.65291191  0.71752587  0.47038778  1
  Mg  Mg22  1  0.14317681  0.11940642  0.90768786  1
  Mg  Mg23  1  0.22661905  0.08629278  0.59357165  1
  Mg  Mg24  1  0.49940337  -0.01324428  0.11160938  1
  Mg  Mg25  1  0.15750653  0.04392217  0.14048434  1
  Mg  Mg26  1  0.71977528  0.41536307  0.74515164  1
  Mg  Mg27  1  0.84503532  0.65460031  0.61989440  1
  Mg  Mg28  1  0.73435648  0.35951715  0.60573554  1
  Mg  Mg29  1  0.95089947  0.34230062  0.89356189  1
  Mg  Mg30  1  0.20749489  0.80461287  0.26777610  1
  Mg  Mg31  1  0.44995220  0.85900325  0.10546391  1
  Mg  Mg32  1  0.81540739  -0.01909921  0.98032302  1
  Mg  Mg33  1  0.69972480  0.27567858  0.95466747  1
  Mg  Mg34  1  0.39659566  0.65531076  0.40168554  1
  Mg  Mg35  1  0.13677256  0.56833641  0.20979511  1
  Mg  Mg36  1  0.05053100  0.60514548  0.49114347  1
  Mg  Mg37  1  0.40277174  0.64471235  0.54859764  1
  Mg  Mg38  1  0.59305757  0.08811379  0.20998367  1
  Mg  Mg39  1  0.77330920  0.35103675  0.19240254  1
  Mg  Mg40  1  0.12868805  0.28966864  0.07522603  1
  Mg  Mg41  1  0.41262549  0.31951834  -0.07729295  1
  Mg  Mg42  1  0.85261571  0.80408215  0.55836265  1
  Mg  Mg43  1  0.49156724  0.77587145  0.49761433  1
  Mg  Mg44  1  0.78497861  0.73392342  0.41612627  1
  Mg  Mg45  1  0.75373268  1.03292782  0.35991263  1
  Mg  Mg46  1  0.12077632  0.29386590  0.89482583  1
  Mg  Mg47  1  0.41028032  0.45380542  0.94957600  1
  Mg  Mg48  1  0.85791598  0.25282525  0.42181215  1
  Mg  Mg49  1  0.14072091  0.10434472  0.42948680  1
  Mg  Mg50  1  0.63769555  0.68832320  1.07843379  1
  Mg  Mg51  1  0.41374986  0.56262942  0.83873324  1
  Mg  Mg52  1  0.71699066  0.75543454  0.99340535  1
  Mg  Mg53  1  0.44103035  0.71870591  0.04517129  1
  Mg  Mg54  1  0.21303251  0.17362066  0.35216759  1
  Mg  Mg55  1  1.00572957  0.17970060  0.48388668  1
  Mg  Mg56  1  0.38054562  0.38099146  0.47792826  1
  Mg  Mg57  1  0.65486073  0.30876916  0.47522593  1
  Mg  Mg58  1  0.88909822  0.96861997  0.10501023  1
  Mg  Mg59  1  0.12227379  0.83723087  0.92646778  1
  Mg  Mg60  1  0.82233823  0.76243485  -0.10385964  1
  Mg  Mg61  1  0.16680362  0.70147510  0.01465180  1
  Mg  Mg62  1  0.32919909  0.23495168  0.51041473  1
  Mg  Mg63  1  0.66280972  0.13943978  0.48349066  1
  Mg  Mg64  1  0.17838251  0.42059463  0.19729640  1
  Mg  Mg65  1  0.07531004  0.47212365  0.90804362  1
  Mg  Mg66  1  0.64321590  0.03720952  0.64898683  1
  Mg  Mg67  1  0.63601216  0.83766369  0.46752232  1
  Mg  Mg68  1  0.60524930  -0.06618176  0.38439754  1
  Mg  Mg69  1  0.79834498  0.92530758  0.67080766  1
  Mg  Mg70  1  0.32794592  0.57088452  0.96391252  1
  Mg  Mg71  1  0.32130944  0.32716156  0.18913099  1
  Mg  Mg72  1  0.22513280  0.46287650  0.64929782  1
  Mg  Mg73  1  0.45221594  0.50516472  0.42752432  1
  Mg  Mg74  1  0.80963789  0.24884961  0.86308159  1
  Mg  Mg75  1  0.84568494  1.19695146  0.20638218  1
  Mg  Mg76  1  0.70762818  0.17461357  0.29502613  1
  Mg  Mg77  1  0.91098029  1.10310573  1.07556428  1
  Mg  Mg78  1  0.11869493  0.54201073  0.59680411  1
  Mg  Mg79  1  0.32430833  0.47450754  0.34908022  1
  Mg  Mg80  1  0.42353579  0.10200476  0.15120494  1
  Mg  Mg81  1  0.47985883  0.82793077  0.28705881  1
  Mg  Mg82  1  1.00213124  0.27899506  0.60137950  1
  Mg  Mg83  1  0.10025587  0.52739785  0.76279041  1
  Mg  Mg84  1  0.07117440  0.37621495  0.78830883  1
  Mg  Mg85  1  0.78315875  0.54745231  0.78789052  1
  Mg  Mg86  1  0.28459425  0.09989510  0.22974597  1
  Mg  Mg87  1  0.35812018  0.86137405  0.39299376  1
  Mg  Mg88  1  0.53676737  0.70142159  0.33168829  1
  Mg  Mg89  1  0.71620404  0.47567309  0.51543844  1
  Mg  Mg90  1  0.19273961  0.20673708  0.80694047  1
  Mg  Mg91  1  -0.05664320  0.99382161  0.81289283  1
  Mg  Mg92  1  -0.08028273  1.01263654  0.64313783  1
  Mg  Mg93  1  0.12191094  0.21006744  0.65176702  1
  Mg  Mg94  1  0.53868310  0.39205185  0.33956254  1
  Mg  Mg95  1  0.52002859  0.67718616  0.16379452  1
  B  B96  1  0.82585602  0.75031780  0.22453190  1
  B  B97  1  0.40294267  0.22136558  0.80232529  1
  B  B98  1  0.73678063  0.13128702  0.69697021  1
  B  B99  1  0.19762389  0.65688860  0.12216350  1
  B  B100  1  0.26825001  0.20229786  0.16521649  1
  B  B101  1  0.69428119  0.62120091  0.76285357  1
  B  B102  1  0.26172845  0.72920358  0.76184563  1
  B  B103  1  0.79513693  0.32307207  0.32729335  1
  B  B104  1  0.15908265  0.77561334  0.73202391  1
  B  B105  1  0.70852924  0.30580524  0.37958670  1
  B  B106  1  0.72474372  0.74910803  0.27561366  1
  B  B107  1  0.32032247  0.16569780  0.79924178  1
  B  B108  1  0.31365796  0.12268456  0.09583030  1
  B  B109  1  0.73781135  0.58281134  0.66265704  1
  B  B110  1  0.81114257  0.20261474  0.74015579  1
  B  B111  1  0.30284671  0.66915934  0.11413269  1
  B  B112  1  0.77646662  0.12389243  0.80494375  1
  B  B113  1  0.27980654  0.60146758  0.18338175  1
  B  B114  1  0.20772197  0.70316368  0.66030400  1
  B  B115  1  0.68041748  0.29642901  0.27330009  1
  B  B116  1  0.34249132  0.21557688  0.09838278  1
  B  B117  1  0.72492868  0.69045250  0.68593792  1
  B  B118  1  0.82275469  0.79848181  0.32783021  1
  B  B119  1  0.31991568  0.27783306  0.82877099  1
  B  B120  1  0.90059776  0.12336624  0.43696592  1
  B  B121  1  0.54246342  0.48492182  0.02447554  1
  B  B122  1  0.61499316  0.89792178  0.14049061  1
  B  B123  1  0.20416618  0.26526208  0.57261964  1
  B  B124  1  0.55744751  0.50370065  0.60992561  1
  B  B125  1  1.03238913  1.08682564  1.00386408  1
  B  B126  1  -0.05157080  0.61296303  1.01018274  1
  B  B127  1  0.43491671  0.08661955  0.41840081  1
  B  B128  1  -0.02313457  0.53065645  1.06542326  1
  B  B129  1  0.41028436  0.00728796  0.48663605  1
  B  B130  1  0.85064454  0.07036784  0.51694915  1
  B  B131  1  0.47199591  0.42185241  0.06952853  1
  B  B132  1  0.45672109  0.54903396  0.63630544  1
  B  B133  1  0.97228726  1.18783812  1.01256396  1
  B  B134  1  0.68637685  0.96965306  0.19761421  1
  B  B135  1  0.24029954  0.35237815  0.57022700  1
  B  B136  1  0.57660513  0.96713598  0.22469804  1
  B  B137  1  0.18143708  0.33842892  0.66052100  1
  B  B138  1  -0.09542228  0.52543565  0.97742186  1
  B  B139  1  0.33109232  0.04589065  0.41817380  1
  B  B140  1  0.54654268  0.60248806  0.59921885  1
  B  B141  1  1.02284506  1.15728195  0.92281645  1
  B  B142  1  0.90197371  0.15447834  0.54093017  1
  B  B143  1  0.54339795  0.46053517  0.12865998  1
  C  C144  1  -0.01951568  0.81592653  0.03660948  1
  C  C145  1  0.50942393  0.26759262  0.58429135  1
  C  C146  1  0.05479854  0.27590215  0.31806608  1
  C  C147  1  0.51529259  0.72027292  0.92875156  1
  C  C148  1  0.09192313  1.03466287  0.70437797  1
  C  C149  1  0.61473100  0.56583719  0.34571485  1
  C  C150  1  0.32490110  -0.06992521  0.21247075  1
  C  C151  1  0.92782661  0.45048172  0.70650040  1
  C  C152  1  0.71858282  0.13858825  1.06884978  1
  C  C153  1  0.23759882  0.55068474  0.44510091  1
  C  C154  1  0.22711395  0.41521978  0.00200168  1
  C  C155  1  0.64046302  0.90511416  0.55239724  1
  C  C156  1  0.85645695  0.77701964  0.04944778  1
  C  C157  1  0.91049121  0.81697095  0.05929095  1
  C  C158  1  0.91074884  0.84984599  0.11851708  1
  C  C159  1  0.89646303  0.81893759  0.17283191  1
  C  C160  1  0.85146336  0.77143315  0.16523034  1
  C  C161  1  0.83454097  0.74780114  0.10218398  1
  C  C162  1  0.40866400  0.19686141  0.68543192  1
  C  C163  1  0.40025825  0.24057451  0.73436023  1
  C  C164  1  0.39677594  0.30046211  0.71514318  1
  C  C165  1  0.44898072  0.31274529  0.67537584  1
  C  C166  1  0.45142387  0.27071097  0.62191049  1
  C  C167  1  0.41067792  0.22112049  0.62282637  1
  C  C168  1  0.55986387  0.15869258  0.59713373  1
  C  C169  1  0.55204399  0.21944368  0.61915022  1
  C  C170  1  0.58078503  0.22965927  0.68182987  1
  C  C171  1  0.64104687  0.19383644  0.70165509  1
  C  C172  1  0.66259682  0.14015825  0.66688303  1
  C  C173  1  0.62390963  0.12944920  0.60848367  1
  C  C174  1  0.07840822  0.68437053  0.14404478  1
  C  C175  1  0.13637038  0.69957674  0.11965536  1
  C  C176  1  0.14027268  0.76098460  0.10606869  1
  C  C177  1  0.08377318  0.80307179  0.11802212  1
  C  C178  1  0.02383317  0.78052136  0.09403341  1
  C  C179  1  0.01703367  0.72404645  0.12507770  1
  C  C180  1  0.14794310  0.31132485  0.25288044  1
  C  C181  1  0.09710223  0.27283638  0.26094040  1
  C  C182  1  0.09344918  0.22469443  0.21321979  1
  C  C183  1  0.15190816  0.19197894  0.19490947  1
  C  C184  1  0.21015199  0.22373708  0.20217973  1
  C  C185  1  0.20808007  0.28281712  0.23192250  1
  C  C186  1  0.63055024  0.66283484  0.92748439  1
  C  C187  1  0.57474017  0.69206076  0.90018253  1
  C  C188  1  0.57730424  0.69911872  0.83583486  1
  C  C189  1  0.59723238  0.64310743  0.79825427  1
  C  C190  1  0.65581869  0.61376793  0.82158425  1
  C  C191  1  0.66194120  0.61271967  0.88838571  1
  C  C192  1  0.38553049  0.70550794  0.78110133  1
  C  C193  1  0.32855219  0.73495020  0.80168363  1
  C  C194  1  0.34209927  0.76970368  0.85819219  1
  C  C195  1  0.41316826  0.78063683  0.87987354  1
  C  C196  1  0.45891770  0.73089353  0.87826989  1
  C  C197  1  0.44042916  0.68870558  0.82863693  1
  C  C198  1  0.89299324  0.36281807  0.27210151  1
  C  C199  1  0.86652692  0.34584528  0.32800581  1
  C  C200  1  0.91059517  0.35023508  0.38175244  1
  C  C201  1  0.98042500  0.35979417  0.37306259  1
  C  C202  1  1.00358828  0.32982620  0.31766574  1
  C  C203  1  0.96397557  0.34621404  0.26352470  1
  C  C204  1  0.07098687  0.93772985  0.76957118  1
  C  C205  1  0.08508095  0.96651943  0.71461024  1
  C  C206  1  0.10538909  0.92286602  0.66839132  1
  C  C207  1  0.09009345  0.85740345  0.67810452  1
  C  C208  1  0.11445695  0.83477850  0.73637867  1
  C  C209  1  0.10353967  0.87752166  0.78558659  1
  C  C210  1  0.70737872  0.48998317  0.39413279  1
  C  C211  1  0.65522338  0.50460034  0.35021698  1
  C  C212  1  0.64858595  0.45666319  0.30165715  1
  C  C213  1  0.64799372  0.39464886  0.32389340  1
  C  C214  1  0.68616195  0.37617869  0.37764652  1
  C  C215  1  0.72194359  0.42448613  0.41007009  1
  C  C216  1  0.64146394  0.72194735  0.34299688  1
  C  C217  1  0.65047068  0.73672229  0.28019341  1
  C  C218  1  0.63993500  0.68814337  0.23419975  1
  C  C219  1  0.66772260  0.62493290  0.25524558  1
  C  C220  1  0.65929632  0.61419041  0.32092393  1
  C  C221  1  0.67810007  0.66493454  0.35953064  1
  C  C222  1  0.21671481  0.04127403  0.69594499  1
  C  C223  1  0.16292821  0.04311738  0.73213362  1
  C  C224  1  0.17864169  0.05649503  0.79700759  1
  C  C225  1  0.23045299  0.09774445  0.81726515  1
  C  C226  1  0.27473821  0.11361211  0.77513325  1
  C  C227  1  0.26610525  0.08897021  0.71264182  1
  C  C228  1  0.25332278  -0.02714907  0.11017540  1
  C  C229  1  0.31119727  -0.04069399  0.14787760  1
  C  C230  1  0.36562099  -0.03201614  0.11606795  1
  C  C231  1  0.36850708  0.01903755  0.07555003  1
  C  C232  1  0.31177317  0.05561672  0.06850110  1
  C  C233  1  0.25210894  0.02715294  0.07123355  1
  C  C234  1  0.81131925  0.54382436  0.58605467  1
  C  C235  1  0.75016308  0.52965016  0.60873582  1
  C  C236  1  0.75363855  0.47701734  0.64433430  1
  C  C237  1  0.81190927  0.47338527  0.68953785  1
  C  C238  1  0.87276961  0.48352750  0.66934827  1
  C  C239  1  0.87288223  0.53377088  0.62984497  1
  C  C240  1  0.92509210  0.34638088  0.76556868  1
  C  C241  1  0.90137804  0.38494536  0.71754613  1
  C  C242  1  0.85028544  0.35742821  0.67634481  1
  C  C243  1  0.80808645  0.31477531  0.70369630  1
  C  C244  1  0.83443901  0.27023225  0.74379816  1
  C  C245  1  0.88594364  0.29672581  0.78393831  1
  C  C246  1  0.39097081  0.82203879  0.18481801  1
  C  C247  1  0.33449136  0.86017579  0.19705961  1
  C  C248  1  0.27684057  0.82943460  0.18594681  1
  C  C249  1  0.27970579  0.76240955  0.18181161  1
  C  C250  1  0.32548200  0.73309438  0.14537704  1
  C  C251  1  0.38540483  0.75957326  0.15580332  1
  C  C252  1  0.68874616  0.16263821  0.95872647  1
  C  C253  1  0.71322818  0.11985709  1.00389096  1
  C  C254  1  0.73443257  0.06401952  0.97149597  1
  C  C255  1  0.76929543  0.06662957  0.91207568  1
  C  C256  1  0.75788237  0.11649143  0.87409442  1
  C  C257  1  0.72133032  0.16554776  0.89967423  1
  C  C258  1  0.24876679  0.53700421  0.26627066  1
  C  C259  1  0.29157914  0.58103797  0.25155737  1
  C  C260  1  0.32361938  0.61023293  0.30498681  1
  C  C261  1  0.32157763  0.57648014  0.36248528  1
  C  C262  1  0.26052176  0.55703994  0.37941771  1
  C  C263  1  0.21405352  0.55510102  0.32427134  1
  C  C264  1  0.27432612  0.67519207  0.56197442  1
  C  C265  1  0.21395507  0.67721749  0.59011404  1
  C  C266  1  0.15927520  0.65626349  0.55252364  1
  C  C267  1  0.16384283  0.64351734  0.48248680  1
  C  C268  1  0.22424540  0.61734416  0.46862999  1
  C  C269  1  0.27683780  0.65174649  0.49498293  1
  C  C270  1  0.67029851  0.29004431  0.14950698  1
  C  C271  1  0.65789355  0.26172560  0.20604691  1
  C  C272  1  0.62924324  0.20521528  0.19732789  1
  C  C273  1  0.63320420  0.17174388  0.13630416  1
  C  C274  1  0.67929429  0.19019520  0.09518008  1
  C  C275  1  0.69140337  0.25212538  0.09850987  1
  C  C276  1  0.31809657  0.33705568  -0.00490048  1
  C  C277  1  0.25162674  0.34941605  0.00116846  1
  C  C278  1  0.21204034  0.29896117  -0.00175308  1
  C  C279  1  0.23866758  0.24857287  0.03388372  1
  C  C280  1  0.30608291  0.24055020  0.03911030  1
  C  C281  1  0.34191391  0.27444711  0.00233760  1
  C  C282  1  0.62585279  0.79913248  0.57596301  1
  C  C283  1  0.66854058  0.84880919  0.57770658  1
  C  C284  1  0.73543155  0.83190237  0.59598514  1
  C  C285  1  0.74982738  0.77079304  0.61480452  1
  C  C286  1  0.70219408  0.74273195  0.64498048  1
  C  C287  1  0.63650254  0.75810101  0.62528609  1
  C  C288  1  0.79386333  0.91517988  0.36212285  1
  C  C289  1  0.82717045  0.85882892  0.37514248  1
  C  C290  1  0.81100450  0.83902880  0.43319576  1
  C  C291  1  0.73965843  0.83780681  0.43933448  1
  C  C292  1  0.69548481  0.87763008  0.40827488  1
  C  C293  1  0.72248652  0.91783355  0.37106398  1
  C  C294  1  0.28669052  0.44173249  0.90087327  1
  C  C295  1  0.23086934  0.42560694  0.92966775  1
  C  C296  1  0.18949897  0.39136811  0.88524464  1
  C  C297  1  0.21821976  0.34376277  0.84618637  1
  C  C298  1  0.28611592  0.33990135  0.84409791  1
  C  C299  1  0.32066479  0.39297189  0.86477909  1
  C  C300  1  0.01356991  0.12523633  0.38611270  1
  C  C301  1  0.94471396  0.13249839  0.38323596  1
  C  C302  1  0.91457396  0.17305308  0.33942719  1
  C  C303  1  0.95412203  0.20499739  0.30038934  1
  C  C304  1  1.02076260  0.21179681  0.31779367  1
  C  C305  1  0.05012387  0.15896429  0.34529442  1
  C  C306  1  0.45576033  0.61602312  0.94194577  1
  C  C307  1  0.48831234  0.66847275  0.96916206  1
  C  C308  1  0.52786093  0.65433320  1.02539473  1
  C  C309  1  0.56541844  0.59893923  1.02639619  1
  C  C310  1  0.54291947  0.54493812  0.98987373  1
  C  C311  1  0.49111607  0.55618165  0.94288012  1
  C  C312  1  0.50211194  0.81367959  1.00930843  1
  C  C313  1  0.53870104  0.77644574  0.97074509  1
  C  C314  1  0.60558706  0.79392832  0.98136039  1
  C  C315  1  0.63154503  0.81045042  1.04968412  1
  C  C316  1  0.59653976  0.85571353  1.08097491  1
  C  C317  1  0.53464869  0.86456604  1.04580776  1
  C  C318  1  1.09876676  0.28408799  0.50002928  1
  C  C319  1  0.15785378  0.25210255  0.51176108  1
  C  C320  1  0.18011583  0.22761726  0.45508726  1
  C  C321  1  0.15935427  0.25904359  0.39653365  1
  C  C322  1  0.09381938  0.27611523  0.38323374  1
  C  C323  1  1.06207112  0.27327139  0.43826961  1
  C  C324  1  0.59829428  0.34431089  0.58340820  1
  C  C325  1  0.53237534  0.33106437  0.58278701  1
  C  C326  1  0.48663946  0.37756019  0.56386615  1
  C  C327  1  0.51102849  0.42371337  0.52731699  1
  C  C328  1  0.56904428  0.44797195  0.55756919  1
  C  C329  1  0.61539204  0.40047239  0.55943390  1
  C  C330  1  0.05893322  0.90411528  0.01190598  1
  C  C331  1  -0.00174879  0.88399083  0.02693948  1
  C  C332  1  0.95356590  0.93393044  0.02336216  1
  C  C333  1  0.98067300  0.99563423  0.04458290  1
  C  C334  1  1.03066406  1.01728040  0.01330219  1
  C  C335  1  0.06754738  0.96719263  -0.00990350  1
  C  C336  1  0.05147295  0.74451911  -0.03648624  1
  C  C337  1  -0.00167828  0.78449711  -0.02833794  1
  C  C338  1  0.94562517  0.76657864  -0.07150629  1
  C  C339  1  0.93056804  0.70082530  -0.06625145  1
  C  C340  1  -0.02600358  0.66459295  -0.02851703  1
  C  C341  1  0.04030149  0.68119238  -0.02446705  1
  C  C342  1  0.54972088  0.21701647  0.47985213  1
  C  C343  1  0.50071817  0.24654710  0.51346490  1
  C  C344  1  0.44160074  0.25261957  0.47583383  1
  C  C345  1  0.41844461  0.19956329  0.43612274  1
  C  C346  1  0.46385037  0.15084729  0.42568107  1
  C  C347  1  0.53019239  0.16300070  0.43995407  1
  C  C348  1  0.07069008  0.51179833  1.01430236  1
  C  C349  1  0.04851060  0.50177334  1.07308457  1
  C  C350  1  0.09262197  0.47110496  0.11221717  1
  C  C351  1  0.13496811  0.42410648  0.08102337  1
  C  C352  1  0.16298895  0.43742937  1.02532189  1
  C  C353  1  0.13633595  0.49108683  0.99867615  1
  C  C354  1  0.45966688  0.89285598  0.49596579  1
  C  C355  1  0.43608146  0.94812447  0.52060562  1
  C  C356  1  0.46931786  0.97283565  0.57785504  1
  C  C357  1  0.53850633  0.95699332  0.59179463  1
  C  C358  1  0.56903122  0.91631525  0.54747814  1
  C  C359  1  0.52980263  0.89330386  0.49386269  1
  C  C360  1  0.78339196  1.00543055  0.58276445  1
  C  C361  1  0.78707057  1.03162226  0.52532129  1
  C  C362  1  0.72968073  1.03315397  0.48445672  1
  C  C363  1  0.67572783  0.99335541  0.49125374  1
  C  C364  1  0.68176982  0.95623433  0.54302803  1
  C  C365  1  0.72469362  0.97731399  0.59427234  1
  C  C366  1  0.29444120  0.41833560  0.11266910  1
  C  C367  1  0.26921890  0.44702954  0.05773983  1
  C  C368  1  0.29875633  0.50198948  1.05234970  1
  C  C369  1  0.37098555  0.49569273  1.05824279  1
  C  C370  1  0.40247511  0.44608406  0.08734307  1
  C  C371  1  0.36531020  0.41318808  0.12457628  1
  C  C372  1  0.34497580  0.50175779  0.49131500  1
  C  C373  1  0.28402265  0.52716584  0.50094704  1
  C  C374  1  0.27342901  0.53127769  0.56664873  1
  C  C375  1  0.32942477  0.51547269  0.60987323  1
  C  C376  1  0.38925136  0.53694110  0.59741588  1
  C  C377  1  0.39817689  0.52829447  0.53247240  1
  C  C378  1  0.82910327  0.25940395  0.10415022  1
  C  C379  1  0.79068020  0.27791613  0.05096544  1
  C  C380  1  0.82260635  0.29062819  0.99781393  1
  C  C381  1  0.89272690  0.28036525  1.00244533  1
  C  C382  1  0.91864306  0.23045383  1.03855394  1
  C  C383  1  0.88833635  0.22465596  0.09434397  1
  C  C384  1  0.78380309  -0.00060997  1.14432799  1
  C  C385  1  0.74475248  0.00956520  0.19560385  1
  C  C386  1  0.74777355  0.06771682  0.22578210  1
  C  C387  1  0.75310052  0.11700526  0.18604362  1
  C  C388  1  0.75437362  0.10389046  0.11854006  1
  C  C389  1  0.79241448  0.05055747  1.10676136  1
  C  C390  1  0.23800095  0.39454794  0.45722985  1
  C  C391  1  0.21465814  0.39646385  0.51701354  1
  C  C392  1  0.16412730  0.44006489  0.52809554  1
  C  C393  1  0.14594620  0.48807775  0.48413552  1
  C  C394  1  0.18986720  0.49839747  0.43944017  1
  C  C395  1  0.21654052  0.44264157  0.41430978  1
  C  C396  1  0.42614936  0.93159010  0.29637197  1
  C  C397  1  0.38634793  0.96032204  0.24898665  1
  C  C398  1  0.40767490  0.01933756  0.23850424  1
  C  C399  1  0.47607019  0.02730456  0.23806738  1
  C  C400  1  0.52041951  0.98561094  0.26586232  1
  C  C401  1  0.49595250  0.94171110  0.30128498  1
  C  C402  1  1.05185296  0.46904958  0.68218367  1
  C  C403  1  0.99401495  0.43588862  0.67727097  1
  C  C404  1  1.00284102  0.37886861  0.64525439  1
  C  C405  1  1.06064579  0.34104289  0.67308998  1
  C  C406  1  1.12058487  0.37052686  0.68893352  1
  C  C407  1  1.11404470  0.43497532  0.70075454  1
  C  C408  1  0.87314596  0.53293304  0.86091853  1
  C  C409  1  0.91154013  0.50149601  0.90571349  1
  C  C410  1  0.96104046  0.46422159  0.88193106  1
  C  C411  1  0.98318397  0.47565044  0.81924122  1
  C  C412  1  0.93765748  0.49065643  0.77062445  1
  C  C413  1  0.89387257  0.53701228  0.79429509  1
  C  C414  1  0.27202918  0.95099485  0.37766060  1
  C  C415  1  0.27373014  0.01521988  0.37796637  1
  C  C416  1  0.25026358  0.04193144  0.32298231  1
  C  C417  1  0.24233626  0.00437044  0.26347216  1
  C  C418  1  0.27349996  -0.05395362  0.25991713  1
  C  C419  1  0.26914750  0.91520952  0.31537259  1
  C  C420  1  0.61755880  0.56580548  0.46898649  1
  C  C421  1  0.58888516  0.58682291  0.41169608  1
  C  C422  1  0.53551952  0.62894953  0.42298462  1
  C  C423  1  0.52201345  0.65189116  0.48667295  1
  C  C424  1  0.56330840  0.63654101  0.53997010  1
  C  C425  1  0.62417120  0.61809698  0.52040935  1
  C  C426  1  -0.00964072  1.08069695  0.75618350  1
  C  C427  1  0.05384433  1.08668986  0.74043387  1
  C  C428  1  0.08097883  0.14453511  0.76039029  1
  C  C429  1  0.06542927  0.17267066  0.82028630  1
  C  C430  1  0.01455867  1.15122317  0.85013093  1
  C  C431  1  -0.02510934  1.10631671  0.81814015  1
  C  C432  1  0.08275029  0.10407051  0.60904161  1
  C  C433  1  0.06823667  0.04924262  0.63597831  1
  C  C434  1  0.01301057  1.02133880  0.60202252  1
  C  C435  1  -0.03673181  1.05889507  0.56880985  1
  C  C436  1  -0.03187652  0.12215637  0.56529659  1
  C  C437  1  0.03068429  0.14312854  0.58379941  1
  C  C438  1  0.52981131  0.59269262  0.25050563  1
  C  C439  1  0.55439515  0.55689139  0.30016911  1
  C  C440  1  0.51739581  0.50552563  0.30252584  1
  C  C441  1  0.50847759  0.46776061  0.24314039  1
  C  C442  1  0.51685392  0.49661122  0.18779337  1
  C  C443  1  0.51041585  0.56079217  0.19056540  1
  O  O444  1  0.85984347  0.76859406  0.28302098  1
  O  O445  1  0.38667621  0.26875906  0.84700225  1
  O  O446  1  0.74819342  0.09627314  0.74937846  1
  O  O447  1  0.21245816  0.61077066  0.16250838  1
  O  O448  1  0.32290638  0.23761930  0.15976256  1
  O  O449  1  0.69832841  0.68066921  0.74192924  1
  O  O450  1  0.25707028  0.69209099  0.70672054  1
  O  O451  1  0.74996409  0.31931482  0.27422341  1
  O  O452  1  0.20831429  0.76380633  0.77862350  1
  O  O453  1  0.77895441  0.29696939  0.38214344  1
  O  O454  1  0.76033605  0.73423327  0.22322952  1
  O  O455  1  0.38577804  0.16327831  0.81578197  1
  O  O456  1  0.27479808  0.14074043  0.14615215  1
  O  O457  1  0.71221651  0.57357316  0.72069579  1
  O  O458  1  0.78460257  0.17152021  0.68629344  1
  O  O459  1  0.24157263  0.66569826  0.07653000  1
  O  O460  1  0.81435371  0.17545510  0.79806032  1
  O  O461  1  0.32388724  0.61671113  0.14384021  1
  O  O462  1  0.15515880  0.73942707  0.67591007  1
  O  O463  1  0.67983764  0.26215423  0.33034543  1
  O  O464  1  0.37148087  0.15713270  0.09754585  1
  O  O465  1  0.76119282  0.64130039  0.66028712  1
  O  O466  1  0.76355588  0.76814852  0.33046000  1
  O  O467  1  0.28755081  0.22448931  0.80678798  1
  O  O468  1  0.90082676  0.18274714  0.48017819  1
  O  O469  1  0.57841058  0.48292180  0.08264777  1
  O  O470  1  0.56298872  0.92843099  0.16948872  1
  O  O471  1  0.18198692  0.27657018  0.63414544  1
  O  O472  1  0.59123289  0.55796598  0.62104491  1
  O  O473  1  1.06265400  1.11154800  0.95516122  1
  O  O474  1  -0.11315028  0.58842508  0.98751203  1
  O  O475  1  0.37555374  0.07517925  0.38711336  1
  O  O476  1  -0.02734972  0.59382369  1.06805695  1
  O  O477  1  0.45949707  0.04075148  0.46010052  1
  O  O478  1  0.86228733  0.07924927  0.45044785  1
  O  O479  1  0.49484674  0.43934950  0.01155581  1
  O  O480  1  0.50231562  0.50200073  0.64351310  1
  O  O481  1  0.98888661  1.12866825  1.03373452  1
  O  O482  1  0.67570770  0.91379328  0.16565947  1
  O  O483  1  0.26646156  0.29109211  0.56348481  1
  O  O484  1  0.63209974  1.00041031  0.22450059  1
  O  O485  1  0.22916492  0.37060319  0.63450197  1
  O  O486  1  -0.07253958  0.49707950  1.03165367  1
  O  O487  1  0.34907709  0.03271311  0.48088478  1
  O  O488  1  0.48502798  0.60807617  0.62607854  1
  O  O489  1  0.99938044  1.20366145  0.96004923  1
  O  O490  1  0.84570439  0.13042632  0.55396645  1
  O  O491  1  0.52121208  0.39926635  0.11357444  1
  O  O492  1  0.81534039  0.76432755  -0.00552001  1
  O  O493  1  0.94293223  0.90053690  0.13664087  1
  O  O494  1  0.94195249  0.82401353  0.22214655  1
  O  O495  1  0.80229071  0.69553127  0.08964231  1
  O  O496  1  0.42237238  0.13990195  0.69093280  1
  O  O497  1  0.35345201  0.34367947  0.72012333  1
  O  O498  1  0.47305815  0.36553979  0.68692975  1
  O  O499  1  0.38600315  0.18614022  0.57424585  1
  O  O500  1  0.51548826  0.12336337  0.56613465  1
  O  O501  1  0.57040031  0.27843092  0.71705823  1
  O  O502  1  0.68173137  0.21977690  0.74506610  1
  O  O503  1  0.63908925  0.08848117  0.56224635  1
  O  O504  1  0.07536719  0.63894521  0.17829602  1
  O  O505  1  0.18509370  0.77997574  0.07245308  1
  O  O506  1  0.09277351  0.85809109  0.14502202  1
  O  O507  1  -0.03144569  0.70907348  0.15182509  1
  O  O508  1  0.15325634  0.36961456  0.27154422  1
  O  O509  1  0.03892407  0.19879466  0.18686911  1
  O  O510  1  0.14660243  0.13162503  0.18334501  1
  O  O511  1  0.26302196  0.31146710  0.25447595  1
  O  O512  1  0.66411780  0.67649027  0.98318165  1
  O  O513  1  0.56288640  0.74776621  0.80632518  1
  O  O514  1  0.57125384  0.63718027  0.73853167  1
  O  O515  1  0.68643301  0.56767972  0.91903126  1
  O  O516  1  0.39458018  0.68795122  0.72351825  1
  O  O517  1  0.30124092  0.79341856  0.89634244  1
  O  O518  1  0.42487961  0.83549271  0.90081242  1
  O  O519  1  0.46461708  0.63313887  0.81515377  1
  O  O520  1  0.85716089  0.38386057  0.22528239  1
  O  O521  1  0.89757436  0.33678401  0.43975689  1
  O  O522  1  1.01303004  0.38896936  0.41902542  1
  O  O523  1  0.97944380  0.33775733  0.20612436  1
  O  O524  1  0.03410894  0.96177894  0.81361288  1
  O  O525  1  0.12070433  0.93125171  0.61296809  1
  O  O526  1  0.05696159  0.82888250  0.63209264  1
  O  O527  1  0.12391974  0.87349057  0.84726549  1
  O  O528  1  0.74099416  0.52841020  0.43298917  1
  O  O529  1  0.64431196  0.46171921  0.24199930  1
  O  O530  1  0.63396223  0.34881674  0.27547255  1
  O  O531  1  0.76216344  0.41580801  0.45883450  1
  O  O532  1  0.60946484  0.75381018  0.38838412  1
  O  O533  1  0.62177268  0.69300833  0.17398777  1
  O  O534  1  0.70634012  0.59988216  0.21725730  1
  O  O535  1  0.71861156  0.66880866  0.41657650  1
  O  O536  1  0.21805688  0.01387602  0.64089030  1
  O  O537  1  0.14274801  0.04528573  0.84361496  1
  O  O538  1  0.22373067  0.13518258  0.86872201  1
  O  O539  1  0.28763807  0.11444150  0.66580169  1
  O  O540  1  0.19434676  -0.04544737  0.11694043  1
  O  O541  1  0.42118832  -0.05969814  0.13004182  1
  O  O542  1  0.42774502  0.04107322  0.07347012  1
  O  O543  1  0.19655110  0.05601370  0.06037794  1
  O  O544  1  0.81311822  0.59062907  0.54861490  1
  O  O545  1  0.70526931  0.44361822  0.65498145  1
  O  O546  1  0.79947572  0.46161824  0.74808491  1
  O  O547  1  0.91065308  0.57898370  0.63539869  1
  O  O548  1  0.98196245  0.34909217  0.80034607  1
  O  O549  1  0.83156466  0.36626182  0.61798922  1
  O  O550  1  0.74357185  0.33121573  0.69795075  1
  O  O551  1  0.89554730  0.28124680  0.84365084  1
  O  O552  1  0.45293798  0.83825765  0.19667971  1
  O  O553  1  0.21843197  0.85278136  0.19132945  1
  O  O554  1  0.24139970  0.73540383  0.21498231  1
  O  O555  1  0.43984046  0.73097669  0.13799148  1
  O  O556  1  0.64662659  0.20564421  0.96837786  1
  O  O557  1  0.72591976  0.01047774  0.98917119  1
  O  O558  1  0.81328341  0.02402094  0.90253198  1
  O  O559  1  0.72106855  0.22108600  0.87833579  1
  O  O560  1  0.21714981  0.50189960  0.22238906  1
  O  O561  1  0.35727402  0.65889945  0.31074545  1
  O  O562  1  0.38222959  0.56217395  0.38761682  1
  O  O563  1  0.15399384  0.56837704  0.31388479  1
  O  O564  1  0.32985841  0.68594525  0.59257487  1
  O  O565  1  0.10718985  0.63266367  0.57405560  1
  O  O566  1  0.11209438  0.64379906  0.44445577  1
  O  O567  1  0.33380719  0.65491044  0.47292367  1
  O  O568  1  0.67903625  0.35088898  0.15201202  1
  O  O569  1  0.61770115  0.17092027  0.24555018  1
  O  O570  1  0.60564366  0.11989967  0.12738363  1
  O  O571  1  0.72295839  0.28138304  0.05210195  1
  O  O572  1  0.36187994  0.37484226  -0.01553410  1
  O  O573  1  0.14692079  0.30062853  -0.01486166  1
  O  O574  1  0.19972920  0.22382298  0.06922369  1
  O  O575  1  0.39870455  0.25880194  -0.01473857  1
  O  O576  1  0.59102824  0.77813954  0.52056031  1
  O  O577  1  0.78685522  0.86514393  0.59187617  1
  O  O578  1  0.80741233  0.74223470  0.60375298  1
  O  O579  1  0.58723216  0.73210822  0.64425788  1
  O  O580  1  0.81806043  0.96456951  0.34791537  1
  O  O581  1  0.84595443  0.79545323  0.46408436  1
  O  O582  1  0.72126174  0.78652564  0.46699878  1
  O  O583  1  0.68764856  0.96451037  0.34714264  1
  O  O584  1  0.31932696  0.49235344  0.90998925  1
  O  O585  1  0.12275261  0.38825946  0.88257102  1
  O  O586  1  0.17780181  0.29882458  0.82264932  1
  O  O587  1  0.38504121  0.39418875  0.86968905  1
  O  O588  1  0.04626520  0.10387177  0.43886178  1
  O  O589  1  0.85366340  0.19237866  0.34302932  1
  O  O590  1  0.92305317  0.22983226  0.25124821  1
  O  O591  1  0.11435687  0.13990605  0.34061910  1
  O  O592  1  0.39327008  0.61388980  0.92004811  1
  O  O593  1  0.53973911  0.69753205  1.07308986  1
  O  O594  1  0.62136285  0.59790154  0.06334860  1
  O  O595  1  0.46452531  0.51235693  0.90400711  1
  O  O596  1  0.43722578  0.80597845  1.02338223  1
  O  O597  1  0.64766157  0.79646317  0.94089140  1
  O  O598  1  0.67815418  0.77361766  1.07556187  1
  O  O599  1  0.49939344  0.91524687  0.05120363  1
  O  O600  1  1.06623140  0.31474356  0.54201216  1
  O  O601  1  0.20897005  0.17194424  0.44625756  1
  O  O602  1  0.20701391  0.26262075  0.35896424  1
  O  O603  1  1.00090277  0.26118689  0.44431760  1
  O  O604  1  0.64921269  0.31011399  0.60642363  1
  O  O605  1  0.42341286  0.38443666  0.57014897  1
  O  O606  1  0.48123746  0.42978326  0.47126988  1
  O  O607  1  0.67368950  0.39533053  0.53407613  1
  O  O608  1  0.11362582  0.87160867  0.01418129  1
  O  O609  1  0.88989565  0.93191928  0.01105919  1
  O  O610  1  0.95884319  1.02562444  0.09502920  1
  O  O611  1  0.11401069  0.97207341  0.95442363  1
  O  O612  1  0.11191264  0.75514277  -0.04842369  1
  O  O613  1  0.90510861  0.80294646  -0.10061052  1
  O  O614  1  0.87059086  0.68438683  -0.08658407  1
  O  O615  1  0.09035631  0.64818491  -0.00802617  1
  O  O616  1  0.61383789  0.22620774  0.48872656  1
  O  O617  1  0.39508381  0.29356730  0.48703296  1
  O  O618  1  0.35545881  0.19439181  0.42802698  1
  O  O619  1  0.57647650  0.11913063  0.43488295  1
  O  O620  1  0.03368734  0.53437166  0.96886630  1
  O  O621  1  0.10350993  0.48082998  0.17435934  1
  O  O622  1  0.14135624  0.37300794  0.11030050  1
  O  O623  1  0.15483737  0.51278338  0.94861030  1
  O  O624  1  0.42916966  0.84565671  0.46421256  1
  O  O625  1  0.44218425  0.01846399  0.60849699  1
  O  O626  1  0.57019236  0.98603341  0.63833136  1
  O  O627  1  0.55316494  0.87559400  0.43936463  1
  O  O628  1  0.83008575  0.99753358  0.62993518  1
  O  O629  1  0.71922622  0.07427648  0.43942360  1
  O  O630  1  0.61917537  0.99963393  0.45670573  1
  O  O631  1  0.71343525  0.97132100  0.65445909  1
  O  O632  1  0.26182665  0.39228730  0.15312711  1
  O  O633  1  0.27175056  0.54854862  1.02692847  1
  O  O634  1  0.39897106  0.52816053  1.01954185  1
  O  O635  1  0.39025689  0.37388667  0.16346663  1
  O  O636  1  0.36099756  0.46468829  0.44110667  1
  O  O637  1  0.22022507  0.53975348  0.59533462  1
  O  O638  1  0.32206462  0.47555434  0.65377236  1
  O  O639  1  0.44368705  0.55771967  0.50884065  1
  O  O640  1  0.81413172  0.27127289  0.16284925  1
  O  O641  1  0.79012304  0.30442955  0.94345598  1
  O  O642  1  0.92882323  0.31250600  0.97294417  1
  O  O643  1  0.90321523  1.17662235  0.13356015  1
  O  O644  1  0.80434122  0.94573233  1.12549579  1
  O  O645  1  0.73265749  0.08333952  0.28612375  1
  O  O646  1  0.75978769  0.17107269  0.21756837  1
  O  O647  1  0.83598212  0.04395869  1.06339771  1
  O  O648  1  0.28338583  0.35505100  0.43795640  1
  O  O649  1  0.14099897  0.44897149  0.58322791  1
  O  O650  1  0.09662122  0.52356286  0.49980291  1
  O  O651  1  0.23944468  0.43398707  0.35792486  1
  O  O652  1  0.41024421  0.88279660  0.32487025  1
  O  O653  1  0.37119287  0.06656389  0.21733626  1
  O  O654  1  0.50033583  0.06063809  0.19169469  1
  O  O655  1  0.53647778  0.89658795  0.32117475  1
  O  O656  1  1.05912539  0.52772633  0.67156694  1
  O  O657  1  0.96619097  0.36107049  0.59262775  1
  O  O658  1  1.05748196  0.28100788  0.68108555  1
  O  O659  1  0.16592396  0.46912746  0.72167107  1
  O  O660  1  0.81771335  0.55786281  0.87356183  1
  O  O661  1  -0.00579472  0.42127049  0.91433961  1
  O  O662  1  1.04903609  0.46832149  0.81422331  1
  O  O663  1  0.86541656  0.58040481  0.76387353  1
  O  O664  1  0.29471377  0.92119324  0.42583549  1
  O  O665  1  0.25353949  0.10273142  0.31549275  1
  O  O666  1  0.21918213  0.03533012  0.21538494  1
  O  O667  1  0.27315969  0.85559195  0.32074580  1
  O  O668  1  0.63156436  0.51239439  0.48517050  1
  O  O669  1  0.48984191  0.64696101  0.37875455  1
  O  O670  1  0.46391772  0.68616734  0.49087556  1
  O  O671  1  0.67806947  0.64897570  0.52775588  1
  O  O672  1  -0.04986503  1.03729041  0.73083410  1
  O  O673  1  0.12730305  0.17272348  0.73471726  1
  O  O674  1  0.11257436  0.20464454  0.85887549  1
  O  O675  1  -0.06492110  1.07792200  0.84917088  1
  O  O676  1  0.14158842  0.12627213  0.60742662  1
  O  O677  1  -0.00756271  0.96511106  0.60770034  1
  O  O678  1  -0.09269799  1.03234322  0.54533704  1
  O  O679  1  0.04606675  0.20149102  0.57603014  1
  O  O680  1  0.51870078  0.65265558  0.25291884  1
  O  O681  1  0.50551654  0.47968367  0.35531422  1
  O  O682  1  0.51480222  0.40788072  0.24678840  1
  O  O683  1  0.49485280  0.59209461  0.14218095  1
